<?xml version="1.0" encoding="UTF-8"?>

<!-- generated on 2026-02-26 11:07:28.365599 by osmWebWizard.py v1_24_0+0000-b72eb3fabc8
<configuration>
    <net-file value="C:\Users\Frederick Eka Putra\Sumo\2026-02-26-11-07-12\osm.net.xml.gz"/>
    <output-trip-file value="C:\Users\Frederick Eka Putra\Sumo\2026-02-26-11-07-12\osm.passenger.trips.xml"/>
    <route-file value="C:\Users\Frederick Eka Putra\Sumo\2026-02-26-11-07-12\osm.passenger.rou.xml"/>
    <prefix value="veh"/>
    <trip-attributes value="departLane=&quot;best&quot;"/>
    <fringe-start-attributes value="departSpeed=&quot;max&quot;"/>
    <vehicle-class value="passenger"/>
    <lanes value="True"/>
    <fringe-factor value="7"/>
    <allow-fringe.min-length value="1000.0"/>
    <edge-permission value="passenger"/>
    <via-edge-types value="highway.motorway,highway.motorway_link,highway.trunk_link,highway.primary_link,highway.secondary_link,highway.tertiary_link"/>
    <min-distance value="300.0"/>
    <min-distance.fringe value="10.0"/>
    <remove-loops value="True"/>
    <insertion-density value="500.0"/>
</configuration>
-->

<routes xmlns:xsi="http://www.w3.org/2001/XMLSchema-instance" xsi:noNamespaceSchemaLocation="http://sumo.dlr.de/xsd/routes_file.xsd">
    <vType id="veh_passenger" vClass="passenger"/>
    <trip id="veh0" depart="0.00" from="362347492" to="-359247809#2" departLane="best" type="veh_passenger" departSpeed="max"/>
    <trip id="veh1" depart="0.90" from="1053267668" to="563175146#0" departLane="best" type="veh_passenger" departSpeed="max"/>
    <trip id="veh2" depart="1.80" from="1053267668" to="749988360#2" departLane="best" type="veh_passenger" departSpeed="max"/>
    <trip id="veh3" depart="2.70" from="749313693#0" to="978400260#0-AddedOffRampEdge" departLane="best" type="veh_passenger" departSpeed="max"/>
    <trip id="veh4" depart="3.60" from="978400306#0" to="978400260#2" departLane="best" type="veh_passenger" departSpeed="max"/>
    <trip id="veh5" depart="4.50" from="1291636131" to="563175146#0" departLane="best" type="veh_passenger" departSpeed="max"/>
    <trip id="veh6" depart="5.40" from="978400306#0" to="563175146#0" departLane="best" type="veh_passenger" departSpeed="max"/>
    <trip id="veh7" depart="6.30" from="749313693#0" to="563175146#0" departLane="best" type="veh_passenger" departSpeed="max"/>
    <trip id="veh8" depart="7.20" from="749662139" to="978400303#4" departLane="best" type="veh_passenger"/>
    <trip id="veh9" depart="8.10" from="1053267667#1-AddedOnRampEdge" to="749988360#2" departLane="best" type="veh_passenger"/>
    <trip id="veh10" depart="9.00" from="1053267668" to="749988360#2" departLane="best" type="veh_passenger" departSpeed="max"/>
    <trip id="veh11" depart="9.90" from="978400306#0" to="563175146#0" departLane="best" type="veh_passenger" departSpeed="max"/>
    <trip id="veh12" depart="10.80" from="1053267668" to="749988360#2" departLane="best" type="veh_passenger" departSpeed="max"/>
    <trip id="veh13" depart="11.70" from="749313693#0" to="978400260#2" departLane="best" type="veh_passenger" departSpeed="max"/>
    <trip id="veh14" depart="12.60" from="1053274595#0" to="563175146#0" departLane="best" type="veh_passenger" departSpeed="max"/>
    <trip id="veh15" depart="13.50" from="1053267668" to="563175146#0" departLane="best" type="veh_passenger" departSpeed="max"/>
    <trip id="veh16" depart="14.40" from="362347492" to="978400260#2" departLane="best" type="veh_passenger" departSpeed="max"/>
    <trip id="veh17" depart="15.30" from="1053267668" to="749988360#2" departLane="best" type="veh_passenger" departSpeed="max"/>
    <trip id="veh18" depart="16.20" from="978400306#0" to="563175146#0" departLane="best" type="veh_passenger" departSpeed="max"/>
    <trip id="veh19" depart="17.10" from="1053274595#0" to="749988360#2" departLane="best" type="veh_passenger" departSpeed="max"/>
    <trip id="veh20" depart="18.00" from="362347492" to="978400303#4" departLane="best" type="veh_passenger" departSpeed="max"/>
    <trip id="veh21" depart="18.90" from="749313693#0" to="1125782445#0" departLane="best" type="veh_passenger" departSpeed="max"/>
    <trip id="veh22" depart="19.80" from="749313693#0" to="978400260#2" departLane="best" type="veh_passenger" departSpeed="max"/>
    <trip id="veh23" depart="20.70" from="1053267668" to="563175146#0" departLane="best" type="veh_passenger" departSpeed="max"/>
    <trip id="veh24" depart="21.60" from="749313693#0" to="978400260#2" departLane="best" type="veh_passenger" departSpeed="max"/>
    <trip id="veh25" depart="22.49" from="978400306#0" to="563175146#0" departLane="best" type="veh_passenger" departSpeed="max"/>
    <trip id="veh26" depart="23.39" from="1291636131" to="978400260#2" departLane="best" type="veh_passenger" departSpeed="max"/>
    <trip id="veh27" depart="24.29" from="1053267667#1-AddedOnRampEdge" to="749988360#2" departLane="best" type="veh_passenger"/>
    <trip id="veh28" depart="25.19" from="978400306#0" to="978400260#2" departLane="best" type="veh_passenger" departSpeed="max"/>
    <trip id="veh29" depart="26.09" from="978400306#0" to="563175146#0" departLane="best" type="veh_passenger" departSpeed="max"/>
    <trip id="veh30" depart="26.99" from="1053267668" to="1053267667#1" departLane="best" type="veh_passenger" departSpeed="max"/>
    <trip id="veh31" depart="27.89" from="362347492" to="-359247809#2" departLane="best" type="veh_passenger" departSpeed="max"/>
    <trip id="veh32" depart="28.79" from="1053267667#1-AddedOnRampEdge" to="978400303#4" departLane="best" type="veh_passenger"/>
    <trip id="veh33" depart="29.69" from="978400303#0" to="978400303#4" departLane="best" type="veh_passenger"/>
    <trip id="veh34" depart="30.59" from="978400306#0" to="1125782445#0" departLane="best" type="veh_passenger" departSpeed="max"/>
    <trip id="veh35" depart="31.49" from="1053267668" to="978400303#4" departLane="best" type="veh_passenger" departSpeed="max"/>
    <trip id="veh36" depart="32.39" from="978400303#0" to="978400303#4" departLane="best" type="veh_passenger"/>
    <trip id="veh37" depart="33.29" from="978400306#0" to="563175146#0" departLane="best" type="veh_passenger" departSpeed="max"/>
    <trip id="veh38" depart="34.19" from="978400306#2" to="563175146#0" departLane="best" type="veh_passenger"/>
    <trip id="veh39" depart="35.09" from="978400306#2" to="563175146#0" departLane="best" type="veh_passenger"/>
    <trip id="veh40" depart="35.99" from="1053267668" to="749988360#2" departLane="best" type="veh_passenger" departSpeed="max"/>
    <trip id="veh41" depart="36.89" from="749313693#0" to="978400260#2" departLane="best" type="veh_passenger" departSpeed="max"/>
    <trip id="veh42" depart="37.79" from="1053267668" to="749988360#2" departLane="best" type="veh_passenger" departSpeed="max"/>
    <trip id="veh43" depart="38.69" from="978400306#1" to="978400260#0-AddedOffRampEdge" departLane="best" type="veh_passenger"/>
    <trip id="veh44" depart="39.59" from="362347492" to="978400303#4" departLane="best" type="veh_passenger" departSpeed="max"/>
    <trip id="veh45" depart="40.49" from="978400306#0" to="978400260#2" departLane="best" type="veh_passenger" departSpeed="max"/>
    <trip id="veh46" depart="41.39" from="1053274595#0" to="-359247809#2" departLane="best" type="veh_passenger" departSpeed="max"/>
    <trip id="veh47" depart="42.29" from="749313693#0" to="563175146#0" departLane="best" type="veh_passenger" departSpeed="max"/>
    <trip id="veh48" depart="43.19" from="885403818#1" to="978400260#2" departLane="best" type="veh_passenger"/>
    <trip id="veh49" depart="44.09" from="1053267668" to="749988360#2" departLane="best" type="veh_passenger" departSpeed="max"/>
    <trip id="veh50" depart="44.99" from="362347492" to="978400303#0" departLane="best" type="veh_passenger" departSpeed="max"/>
    <trip id="veh51" depart="45.89" from="978400306#0" to="978400260#2" departLane="best" type="veh_passenger" departSpeed="max"/>
    <trip id="veh52" depart="46.79" from="362347492" to="978400303#4" departLane="best" type="veh_passenger" departSpeed="max"/>
    <trip id="veh53" depart="47.69" from="978400306#0" to="978400260#2" departLane="best" type="veh_passenger" departSpeed="max"/>
    <trip id="veh54" depart="48.59" from="362347492" to="978400260#2" departLane="best" type="veh_passenger" departSpeed="max"/>
    <trip id="veh55" depart="49.49" from="362347492" to="-359247809#2" departLane="best" type="veh_passenger" departSpeed="max"/>
    <trip id="veh56" depart="50.39" from="1291636131" to="978400260#0-AddedOffRampEdge" departLane="best" type="veh_passenger" departSpeed="max"/>
    <trip id="veh57" depart="51.29" from="1053267668" to="749988360#2" departLane="best" type="veh_passenger" departSpeed="max"/>
    <trip id="veh58" depart="52.19" from="1053267667#1" to="749988360#2" departLane="best" type="veh_passenger"/>
    <trip id="veh59" depart="53.09" from="978400306#1" to="1125782445#0" departLane="best" type="veh_passenger"/>
    <trip id="veh60" depart="53.99" from="1053267668" to="-359247809#2" departLane="best" type="veh_passenger" departSpeed="max"/>
    <trip id="veh61" depart="54.89" from="362347492" to="978400260#2" departLane="best" type="veh_passenger" departSpeed="max"/>
    <trip id="veh62" depart="55.79" from="978400306#0" to="563175146#0" departLane="best" type="veh_passenger" departSpeed="max"/>
    <trip id="veh63" depart="56.69" from="1053274595#2" to="978400303#0" departLane="best" type="veh_passenger"/>
    <trip id="veh64" depart="57.59" from="749313693#0" to="978400260#2" departLane="best" type="veh_passenger" departSpeed="max"/>
    <trip id="veh65" depart="58.49" from="1053267668" to="563175146#0" departLane="best" type="veh_passenger" departSpeed="max"/>
    <trip id="veh66" depart="59.39" from="1053274595#0" to="1053267667#1" departLane="best" type="veh_passenger" departSpeed="max"/>
    <trip id="veh67" depart="60.29" from="749313693#0" to="978400260#2" departLane="best" type="veh_passenger" departSpeed="max"/>
    <trip id="veh68" depart="61.19" from="749313693#0" to="978400260#2" departLane="best" type="veh_passenger" departSpeed="max"/>
    <trip id="veh69" depart="62.09" from="1053274595#0" to="563175146#0" departLane="best" type="veh_passenger" departSpeed="max"/>
    <trip id="veh70" depart="62.99" from="1053274595#0" to="-359247809#2" departLane="best" type="veh_passenger" departSpeed="max"/>
    <trip id="veh71" depart="63.89" from="749313693#0" to="563175146#0" departLane="best" type="veh_passenger" departSpeed="max"/>
    <trip id="veh72" depart="64.79" from="749313693#0" to="563175146#0" departLane="best" type="veh_passenger" departSpeed="max"/>
    <trip id="veh73" depart="65.68" from="362347492" to="978400303#4" departLane="best" type="veh_passenger" departSpeed="max"/>
    <trip id="veh74" depart="66.58" from="978400306#2-AddedOffRampEdge" to="563175146#0" departLane="best" type="veh_passenger"/>
    <trip id="veh75" depart="67.48" from="1053274595#0" to="1125782445#0" departLane="best" type="veh_passenger" departSpeed="max"/>
    <trip id="veh76" depart="68.38" from="757373594" to="978400303#4" departLane="best" type="veh_passenger"/>
    <trip id="veh77" depart="69.28" from="1053267668" to="563175146#0" departLane="best" type="veh_passenger" departSpeed="max"/>
    <trip id="veh78" depart="70.18" from="1291636131" to="563175146#0" departLane="best" type="veh_passenger" departSpeed="max"/>
    <trip id="veh79" depart="71.08" from="1291636131" to="978400260#2" departLane="best" type="veh_passenger" departSpeed="max"/>
    <trip id="veh80" depart="71.98" from="978400306#2-AddedOffRampEdge" to="978400260#0" departLane="best" type="veh_passenger"/>
    <trip id="veh81" depart="72.88" from="1053274595#0" to="749988360#0" departLane="best" type="veh_passenger" departSpeed="max"/>
    <trip id="veh82" depart="73.78" from="362347492" to="978400260#2" departLane="best" type="veh_passenger" departSpeed="max"/>
    <trip id="veh83" depart="74.68" from="978400306#2-AddedOffRampEdge" to="563175146#0" departLane="best" type="veh_passenger"/>
    <trip id="veh84" depart="75.58" from="978400306#0" to="757092063" departLane="best" type="veh_passenger" departSpeed="max"/>
    <trip id="veh85" depart="76.48" from="362347492" to="978400303#4" departLane="best" type="veh_passenger" departSpeed="max"/>
    <trip id="veh86" depart="77.38" from="749313693#0" to="563175146#0" departLane="best" type="veh_passenger" departSpeed="max"/>
    <trip id="veh87" depart="78.28" from="885403818#1" to="978400260#2" departLane="best" type="veh_passenger"/>
    <trip id="veh88" depart="79.18" from="749662139" to="978400303#4" departLane="best" type="veh_passenger"/>
    <trip id="veh89" depart="80.08" from="1291636131" to="978400260#2" departLane="best" type="veh_passenger" departSpeed="max"/>
    <trip id="veh90" depart="80.98" from="757373594" to="978400303#4" departLane="best" type="veh_passenger"/>
    <trip id="veh91" depart="81.88" from="1053267668" to="749988360#2" departLane="best" type="veh_passenger" departSpeed="max"/>
    <trip id="veh92" depart="82.78" from="978400306#0" to="978400260#0-AddedOffRampEdge" departLane="best" type="veh_passenger" departSpeed="max"/>
    <trip id="veh93" depart="83.68" from="1053267668" to="749988360#2" departLane="best" type="veh_passenger" departSpeed="max"/>
    <trip id="veh94" depart="84.58" from="1053274595#0" to="749988360#2" departLane="best" type="veh_passenger" departSpeed="max"/>
    <trip id="veh95" depart="85.48" from="978400306#2-AddedOffRampEdge" to="563175146#0" departLane="best" type="veh_passenger"/>
    <trip id="veh96" depart="86.38" from="978400306#2-AddedOffRampEdge" to="978400260#0" departLane="best" type="veh_passenger"/>
    <trip id="veh97" depart="87.28" from="978400306#0" to="563175146#0" departLane="best" type="veh_passenger" departSpeed="max"/>
    <trip id="veh98" depart="88.18" from="1053267668" to="563175146#0" departLane="best" type="veh_passenger" departSpeed="max"/>
    <trip id="veh99" depart="89.08" from="1053267668" to="978400303#4" departLane="best" type="veh_passenger" departSpeed="max"/>
    <trip id="veh100" depart="89.98" from="1053267668" to="749988360#2" departLane="best" type="veh_passenger" departSpeed="max"/>
    <trip id="veh101" depart="90.88" from="757092064#0" to="978400260#2" departLane="best" type="veh_passenger"/>
    <trip id="veh102" depart="91.78" from="1053274595#0" to="1053267667#1" departLane="best" type="veh_passenger" departSpeed="max"/>
    <trip id="veh103" depart="92.68" from="749662139" to="-359247809#2" departLane="best" type="veh_passenger"/>
    <trip id="veh104" depart="93.58" from="1053274595#0" to="1125782445#0" departLane="best" type="veh_passenger" departSpeed="max"/>
    <trip id="veh105" depart="94.48" from="1053267668" to="978400303#4" departLane="best" type="veh_passenger" departSpeed="max"/>
    <trip id="veh106" depart="95.38" from="749313693#0" to="1125782445#0" departLane="best" type="veh_passenger" departSpeed="max"/>
    <trip id="veh107" depart="96.28" from="1053267668" to="978400303#4" departLane="best" type="veh_passenger" departSpeed="max"/>
    <trip id="veh108" depart="97.18" from="885403818#1" to="1125782445#0" departLane="best" type="veh_passenger"/>
    <trip id="veh109" depart="98.08" from="1053267668" to="749988360#2" departLane="best" type="veh_passenger" departSpeed="max"/>
    <trip id="veh110" depart="98.98" from="1053267667#1-AddedOnRampEdge" to="978400303#4" departLane="best" type="veh_passenger"/>
    <trip id="veh111" depart="99.88" from="1053267668" to="-359247809#2" departLane="best" type="veh_passenger" departSpeed="max"/>
    <trip id="veh112" depart="100.78" from="749662140#0" to="978400303#4" departLane="best" type="veh_passenger"/>
    <trip id="veh113" depart="101.68" from="978400306#0" to="563175146#0" departLane="best" type="veh_passenger" departSpeed="max"/>
    <trip id="veh114" depart="102.58" from="978400306#0" to="563175146#0" departLane="best" type="veh_passenger" departSpeed="max"/>
    <trip id="veh115" depart="103.48" from="885403818#1" to="978400260#2" departLane="best" type="veh_passenger"/>
    <trip id="veh116" depart="104.38" from="362347492" to="978400303#4" departLane="best" type="veh_passenger" departSpeed="max"/>
    <trip id="veh117" depart="105.28" from="1053267667#1-AddedOnRampEdge" to="749988360#2" departLane="best" type="veh_passenger"/>
    <trip id="veh118" depart="106.18" from="1053267667#1" to="978400303#4" departLane="best" type="veh_passenger"/>
    <trip id="veh119" depart="107.08" from="1053267667#1-AddedOnRampEdge" to="978400303#4" departLane="best" type="veh_passenger"/>
    <trip id="veh120" depart="107.98" from="978400306#0" to="885403818#1" departLane="best" type="veh_passenger" departSpeed="max"/>
    <trip id="veh121" depart="108.87" from="1053267668" to="978400303#4" departLane="best" type="veh_passenger" departSpeed="max"/>
    <trip id="veh122" depart="109.77" from="1291636131" to="978400260#2" departLane="best" type="veh_passenger" departSpeed="max"/>
    <trip id="veh123" depart="110.67" from="1053267668" to="749988360#2" departLane="best" type="veh_passenger" departSpeed="max"/>
    <trip id="veh124" depart="111.57" from="978400306#2" to="978400260#2" departLane="best" type="veh_passenger"/>
    <trip id="veh125" depart="112.47" from="978400306#0" to="563175146#0" departLane="best" type="veh_passenger" departSpeed="max"/>
    <trip id="veh126" depart="113.37" from="978400306#0" to="978400260#0" departLane="best" type="veh_passenger" departSpeed="max"/>
    <trip id="veh127" depart="114.27" from="978400306#0" to="978400260#2" departLane="best" type="veh_passenger" departSpeed="max"/>
    <trip id="veh128" depart="115.17" from="1053274595#0" to="1125782445#0" departLane="best" type="veh_passenger" departSpeed="max"/>
    <trip id="veh129" depart="116.07" from="1053267667#1-AddedOnRampEdge" to="978400303#4" departLane="best" type="veh_passenger"/>
    <trip id="veh130" depart="116.97" from="978400306#0" to="978400260#2" departLane="best" type="veh_passenger" departSpeed="max"/>
    <trip id="veh131" depart="117.87" from="749313693#0" to="563175146#0" departLane="best" type="veh_passenger" departSpeed="max"/>
    <trip id="veh132" depart="118.77" from="1053267668" to="978400303#4" departLane="best" type="veh_passenger" departSpeed="max"/>
    <trip id="veh133" depart="119.67" from="978400306#0" to="563175146#0" departLane="best" type="veh_passenger" departSpeed="max"/>
    <trip id="veh134" depart="120.57" from="1053267667#1" to="749988360#2" departLane="best" type="veh_passenger"/>
    <trip id="veh135" depart="121.47" from="1053267668" to="563175146#0" departLane="best" type="veh_passenger" departSpeed="max"/>
    <trip id="veh136" depart="122.37" from="978400306#0" to="978400260#2" departLane="best" type="veh_passenger" departSpeed="max"/>
    <trip id="veh137" depart="123.27" from="362347492" to="-359247809#2" departLane="best" type="veh_passenger" departSpeed="max"/>
    <trip id="veh138" depart="124.17" from="1053267668" to="563175146#0" departLane="best" type="veh_passenger" departSpeed="max"/>
    <trip id="veh139" depart="125.07" from="362347492" to="978400303#0" departLane="best" type="veh_passenger" departSpeed="max"/>
    <trip id="veh140" depart="125.97" from="362347492" to="978400260#2" departLane="best" type="veh_passenger" departSpeed="max"/>
    <trip id="veh141" depart="126.87" from="749313693#0" to="563175146#0" departLane="best" type="veh_passenger" departSpeed="max"/>
    <trip id="veh142" depart="127.77" from="885403818#1" to="1125782445#0" departLane="best" type="veh_passenger"/>
    <trip id="veh143" depart="128.67" from="1053267668" to="749988360#0" departLane="best" type="veh_passenger" departSpeed="max"/>
    <trip id="veh144" depart="129.57" from="978400306#0" to="978400260#2" departLane="best" type="veh_passenger" departSpeed="max"/>
    <trip id="veh145" depart="130.47" from="749662140#0" to="978400303#4" departLane="best" type="veh_passenger"/>
    <trip id="veh146" depart="131.37" from="978400306#2-AddedOffRampEdge" to="563175146#0" departLane="best" type="veh_passenger"/>
    <trip id="veh147" depart="132.27" from="978400306#0" to="978400260#2" departLane="best" type="veh_passenger" departSpeed="max"/>
    <trip id="veh148" depart="133.17" from="1053267668" to="978400303#0" departLane="best" type="veh_passenger" departSpeed="max"/>
    <trip id="veh149" depart="134.07" from="1053267668" to="563175146#0" departLane="best" type="veh_passenger" departSpeed="max"/>
    <trip id="veh150" depart="134.97" from="978400306#2-AddedOffRampEdge" to="978400260#2" departLane="best" type="veh_passenger"/>
    <trip id="veh151" depart="135.87" from="749313693#0" to="978400260#2" departLane="best" type="veh_passenger" departSpeed="max"/>
    <trip id="veh152" depart="136.77" from="362347492" to="978400303#4" departLane="best" type="veh_passenger" departSpeed="max"/>
    <trip id="veh153" depart="137.67" from="1291636131" to="978400260#2" departLane="best" type="veh_passenger" departSpeed="max"/>
    <trip id="veh154" depart="138.57" from="757092064#0" to="978400260#2" departLane="best" type="veh_passenger"/>
    <trip id="veh155" depart="139.47" from="749662140#0" to="978400303#4" departLane="best" type="veh_passenger"/>
    <trip id="veh156" depart="140.37" from="362347492" to="978400303#0" departLane="best" type="veh_passenger" departSpeed="max"/>
    <trip id="veh157" depart="141.27" from="1053267668" to="563175146#0" departLane="best" type="veh_passenger" departSpeed="max"/>
    <trip id="veh158" depart="142.17" from="749313693#0" to="563175146#0" departLane="best" type="veh_passenger" departSpeed="max"/>
    <trip id="veh159" depart="143.07" from="978400306#1" to="757092063" departLane="best" type="veh_passenger"/>
    <trip id="veh160" depart="143.97" from="978400306#2" to="1125782445#0" departLane="best" type="veh_passenger"/>
    <trip id="veh161" depart="144.87" from="362347492" to="978400303#4" departLane="best" type="veh_passenger" departSpeed="max"/>
    <trip id="veh162" depart="145.77" from="749313693#0" to="1125782445#0" departLane="best" type="veh_passenger" departSpeed="max"/>
    <trip id="veh163" depart="146.67" from="749313693#0" to="978400260#2" departLane="best" type="veh_passenger" departSpeed="max"/>
    <trip id="veh164" depart="147.57" from="978400306#0" to="978400260#2" departLane="best" type="veh_passenger" departSpeed="max"/>
    <trip id="veh165" depart="148.47" from="749313693#0" to="978400260#2" departLane="best" type="veh_passenger" departSpeed="max"/>
    <trip id="veh166" depart="149.37" from="757373594" to="-359247809#2" departLane="best" type="veh_passenger"/>
    <trip id="veh167" depart="150.27" from="749313693#0" to="978400260#2" departLane="best" type="veh_passenger" departSpeed="max"/>
    <trip id="veh168" depart="151.17" from="757373594" to="-359247809#2" departLane="best" type="veh_passenger"/>
    <trip id="veh169" depart="152.06" from="978400306#1" to="1020455380#0" departLane="best" type="veh_passenger"/>
    <trip id="veh170" depart="152.96" from="362347492" to="978400260#2" departLane="best" type="veh_passenger" departSpeed="max"/>
    <trip id="veh171" depart="153.86" from="1291636131" to="978400260#0" departLane="best" type="veh_passenger" departSpeed="max"/>
    <trip id="veh172" depart="154.76" from="749313693#0" to="563175146#0" departLane="best" type="veh_passenger" departSpeed="max"/>
    <trip id="veh173" depart="155.66" from="1053267668" to="978400303#4" departLane="best" type="veh_passenger" departSpeed="max"/>
    <trip id="veh174" depart="156.56" from="1053267667#1" to="749988360#2" departLane="best" type="veh_passenger"/>
    <trip id="veh175" depart="157.46" from="362347492" to="978400303#4" departLane="best" type="veh_passenger" departSpeed="max"/>
    <trip id="veh176" depart="158.36" from="978400306#0" to="757092063" departLane="best" type="veh_passenger" departSpeed="max"/>
    <trip id="veh177" depart="159.26" from="1291636131" to="563175146#0" departLane="best" type="veh_passenger" departSpeed="max"/>
    <trip id="veh178" depart="160.16" from="1053267668" to="563175146#0" departLane="best" type="veh_passenger" departSpeed="max"/>
    <trip id="veh179" depart="161.06" from="978400306#0" to="978400260#2" departLane="best" type="veh_passenger" departSpeed="max"/>
    <trip id="veh180" depart="161.96" from="978400306#0" to="563175146#0" departLane="best" type="veh_passenger" departSpeed="max"/>
    <trip id="veh181" depart="162.86" from="362347492" to="978400260#2" departLane="best" type="veh_passenger" departSpeed="max"/>
    <trip id="veh182" depart="163.76" from="1053267667#1" to="749988360#2" departLane="best" type="veh_passenger"/>
    <trip id="veh183" depart="164.66" from="362347492" to="978400303#4" departLane="best" type="veh_passenger" departSpeed="max"/>
    <trip id="veh184" depart="165.56" from="362347492" to="978400260#2" departLane="best" type="veh_passenger" departSpeed="max"/>
    <trip id="veh185" depart="166.46" from="749313693#0" to="978400260#2" departLane="best" type="veh_passenger" departSpeed="max"/>
    <trip id="veh186" depart="167.36" from="1291636131" to="563175146#0" departLane="best" type="veh_passenger" departSpeed="max"/>
    <trip id="veh187" depart="168.26" from="978400306#1" to="978400260#0" departLane="best" type="veh_passenger"/>
    <trip id="veh188" depart="169.16" from="362347492" to="978400303#4" departLane="best" type="veh_passenger" departSpeed="max"/>
    <trip id="veh189" depart="170.06" from="978400303#0" to="978400303#4" departLane="best" type="veh_passenger"/>
    <trip id="veh190" depart="170.96" from="749662140#0" to="978400303#4" departLane="best" type="veh_passenger"/>
    <trip id="veh191" depart="171.86" from="362347492" to="978400303#4" departLane="best" type="veh_passenger" departSpeed="max"/>
    <trip id="veh192" depart="172.76" from="1053274595#0" to="978400303#4" departLane="best" type="veh_passenger" departSpeed="max"/>
    <trip id="veh193" depart="173.66" from="749313693#0" to="978400260#2" departLane="best" type="veh_passenger" departSpeed="max"/>
    <trip id="veh194" depart="174.56" from="362347492" to="978400303#4" departLane="best" type="veh_passenger" departSpeed="max"/>
    <trip id="veh195" depart="175.46" from="1053267668" to="978400303#0" departLane="best" type="veh_passenger" departSpeed="max"/>
    <trip id="veh196" depart="176.36" from="757092064#0" to="978400260#2" departLane="best" type="veh_passenger"/>
    <trip id="veh197" depart="177.26" from="362347492" to="978400303#4" departLane="best" type="veh_passenger" departSpeed="max"/>
    <trip id="veh198" depart="178.16" from="757373594" to="978400303#0" departLane="best" type="veh_passenger"/>
    <trip id="veh199" depart="179.06" from="978400306#0" to="563175146#0" departLane="best" type="veh_passenger" departSpeed="max"/>
    <trip id="veh200" depart="179.96" from="978400306#2-AddedOffRampEdge" to="563175146#0" departLane="best" type="veh_passenger"/>
    <trip id="veh201" depart="180.86" from="757373594" to="978400303#4" departLane="best" type="veh_passenger"/>
    <trip id="veh202" depart="181.76" from="1053267667#1" to="-359247809#2" departLane="best" type="veh_passenger"/>
    <trip id="veh203" depart="182.66" from="1053267668" to="749988360#2" departLane="best" type="veh_passenger" departSpeed="max"/>
    <trip id="veh204" depart="183.56" from="362347492" to="978400260#2" departLane="best" type="veh_passenger" departSpeed="max"/>
    <trip id="veh205" depart="184.46" from="1053267667#1-AddedOnRampEdge" to="978400303#4" departLane="best" type="veh_passenger"/>
    <trip id="veh206" depart="185.36" from="362347492" to="978400303#4" departLane="best" type="veh_passenger" departSpeed="max"/>
    <trip id="veh207" depart="186.26" from="1291636131" to="978400260#2" departLane="best" type="veh_passenger" departSpeed="max"/>
    <trip id="veh208" depart="187.16" from="362347492" to="978400303#4" departLane="best" type="veh_passenger" departSpeed="max"/>
    <trip id="veh209" depart="188.06" from="1291636131" to="978400260#2" departLane="best" type="veh_passenger" departSpeed="max"/>
    <trip id="veh210" depart="188.96" from="1053267668" to="-359247809#2" departLane="best" type="veh_passenger" departSpeed="max"/>
    <trip id="veh211" depart="189.86" from="1053274595#0" to="749988360#2" departLane="best" type="veh_passenger" departSpeed="max"/>
    <trip id="veh212" depart="190.76" from="1053267668" to="978400303#4" departLane="best" type="veh_passenger" departSpeed="max"/>
    <trip id="veh213" depart="191.66" from="1053267667#1-AddedOnRampEdge" to="749988360#2" departLane="best" type="veh_passenger"/>
    <trip id="veh214" depart="192.56" from="1053267668" to="563175146#0" departLane="best" type="veh_passenger" departSpeed="max"/>
    <trip id="veh215" depart="193.46" from="1053274595#0" to="563175146#0" departLane="best" type="veh_passenger" departSpeed="max"/>
    <trip id="veh216" depart="194.36" from="757092064#0" to="978400260#2" departLane="best" type="veh_passenger"/>
    <trip id="veh217" depart="195.25" from="978400306#0" to="978400260#2" departLane="best" type="veh_passenger" departSpeed="max"/>
    <trip id="veh218" depart="196.15" from="978400306#2-AddedOffRampEdge" to="978400260#0-AddedOffRampEdge" departLane="best" type="veh_passenger"/>
    <trip id="veh219" depart="197.05" from="362347492" to="978400260#2" departLane="best" type="veh_passenger" departSpeed="max"/>
    <trip id="veh220" depart="197.95" from="1053267668" to="563175146#0" departLane="best" type="veh_passenger" departSpeed="max"/>
    <trip id="veh221" depart="198.85" from="362347492" to="978400260#2" departLane="best" type="veh_passenger" departSpeed="max"/>
    <trip id="veh222" depart="199.75" from="1291636131" to="563175146#0" departLane="best" type="veh_passenger" departSpeed="max"/>